69
cyclic_2_intr_3
C -3.382487 -1.494151 -2.365611
C -4.230029 -1.242381 -3.436397
C -5.362812 -0.452972 -3.248827
C -5.648802 0.067724 -1.993895
C -4.789686 -0.190232 -0.933731
C -3.640275 -0.961339 -1.103420
C -2.707202 -1.268266 0.067420
O -4.719223 0.640107 2.669730
O -5.127596 -1.654794 1.706680
S -4.536802 -0.334857 1.625911
N -2.956708 -0.470897 1.277085
O -5.142389 0.385223 0.282857
C 0.613811 3.543877 0.849499
C 1.653303 4.435302 0.598527
C 1.860502 4.919122 -0.691981
C 1.029215 4.502009 -1.731260
C -0.005852 3.606454 -1.476944
O -1.451868 1.702172 1.266267
C -0.222391 3.121116 -0.185916
C -1.340018 2.125186 0.065660
O -2.037073 1.755121 -0.895169
C -1.314706 -1.018649 -0.324951
N -0.226648 -0.699282 -0.527591
C 2.111389 -0.662130 1.702416
N 0.904322 -0.188865 -0.856820
C 3.556942 0.295523 -0.688251
C 2.592351 -2.491721 -0.528761
P 2.248284 -0.777988 -0.091720
C 3.046541 -1.311315 2.519723
C 2.974932 -1.161236 3.898528
C 1.974085 -0.370087 4.462880
C 1.047794 0.274295 3.648824
C 1.113368 0.138591 2.264778
C 4.891016 -0.114483 -0.579223
C 5.908266 0.747989 -0.969050
C 5.596545 2.014687 -1.460085
C 4.269227 2.423553 -1.557055
C 3.241765 1.570855 -1.167099
C 2.082438 -3.529642 0.261044
C 2.242074 -4.849741 -0.146361
C 2.902818 -5.136248 -1.338236
C 3.400021 -4.104567 -2.132633
C 3.241311 -2.782550 -1.735869
H -2.496992 -2.107547 -2.512597
H -4.006368 -1.659195 -4.412420
H -6.031143 -0.247354 -4.078389
H -6.528973 0.675878 -1.816709
H -2.791440 -2.331254 0.325835
H -2.443771 0.479192 1.281805
H 0.437899 3.165774 1.851090
H 2.300757 4.755489 1.409777
H 2.668603 5.618393 -0.888076
H 1.188621 4.875940 -2.738735
H -0.661651 3.267160 -2.272037
H 3.821799 -1.937900 2.087838
H 3.697364 -1.664130 4.532878
H 1.918392 -0.259085 5.541246
H 0.264756 0.887560 4.082810
H 0.376703 0.658684 1.655643
H 5.140409 -1.102799 -0.203917
H 6.942588 0.429932 -0.891699
H 6.393162 2.685645 -1.765885
H 4.024095 3.411399 -1.932276
H 2.207843 1.894307 -1.236485
H 1.569959 -3.312911 1.193128
H 1.851546 -5.653131 0.469203
H 3.029223 -6.167731 -1.651352
H 3.911450 -4.329224 -3.062636
H 3.625435 -1.982334 -2.360904
