54
cyclic_2
C -2.426659 2.389167 -0.481413
C -2.547055 3.043329 0.737383
C -3.085574 2.357696 1.827300
C -3.504177 1.042406 1.692962
C -3.373055 0.386969 0.467275
C -2.826356 1.059991 -0.630836
C -2.660250 0.336797 -1.962196
O -2.335047 -2.499536 -0.754155
O -4.793297 -2.623742 -1.054527
S -3.598456 -1.798381 -1.009136
N -3.591598 -0.742598 -2.158416
O -3.810211 -0.906936 0.428690
C -1.210771 -0.074962 -1.993779
N -0.148600 -0.460727 -1.759091
C 2.127351 1.488029 -0.494282
N 1.026392 -0.958576 -1.525191
C 0.780044 -0.376206 1.271497
C 3.311565 -1.186036 -0.078395
P 1.780864 -0.262346 -0.223129
C 1.102378 2.421015 -0.289343
C 1.314300 3.759318 -0.598017
C 2.545634 4.170842 -1.103911
C 3.567369 3.245152 -1.304677
C 3.361412 1.902578 -1.005766
C -0.250653 -1.319719 1.319050
C -1.052726 -1.404187 2.452110
C -0.818426 -0.565640 3.537476
C 0.214366 0.370227 3.494424
C 1.010163 0.475693 2.360476
C 3.887094 -1.386432 1.179770
C 5.097271 -2.063941 1.280877
C 5.728305 -2.538990 0.133697
C 5.151752 -2.341880 -1.119552
C 3.942631 -1.665155 -1.232275
H -2.009464 2.910653 -1.340031
H -2.230242 4.076279 0.837146
H -3.184897 2.852840 2.788168
H -3.927616 0.496353 2.529090
H -2.798022 1.046716 -2.782968
H 0.145637 2.112635 0.122578
H 0.518845 4.480103 -0.437812
H 2.711073 5.217450 -1.339172
H 4.527508 3.568196 -1.693180
H 4.160601 1.185194 -1.164833
H -0.459921 -1.965565 0.472779
H -1.872423 -2.113904 2.469140
H -1.449458 -0.631589 4.418270
H 0.391545 1.028167 4.338754
H 1.794774 1.225704 2.320510
H 3.392298 -1.029121 2.077621
H 5.543013 -2.225342 2.256656
H 6.671476 -3.069652 0.216578
H 5.641726 -2.718394 -2.011298
H 3.485375 -1.518771 -2.205188
