54
cyclic_1_intr_2
C -1.955092 1.828116 -0.308752
C -1.922940 2.622958 0.823489
C -2.946814 2.522264 1.770233
C -4.002715 1.634255 1.597974
C -4.013287 0.835688 0.465585
C -3.002142 0.915379 -0.496965
C -3.052191 0.067483 -1.667436
O -4.222021 -2.337488 0.195725
O -6.193725 -1.625983 -1.171729
S -4.884541 -1.356377 -0.636254
N -3.865872 -0.917777 -1.863126
O -5.095745 0.005470 0.267807
C 0.039345 0.780307 -3.047839
N 0.795830 0.084245 -2.474409
C 2.919753 1.334316 -0.393327
N 1.655980 -0.772204 -1.920689
C 0.854181 -0.311281 0.803140
C 3.410255 -1.538273 0.003722
P 2.169197 -0.313432 -0.441987
C 2.094058 2.465719 -0.395665
C 2.653112 3.736432 -0.463586
C 4.037116 3.884696 -0.527058
C 4.862602 2.762827 -0.525265
C 4.308033 1.488414 -0.462990
C -0.252131 -1.137010 0.582691
C -1.274204 -1.195386 1.524587
C -1.192202 -0.431338 2.685558
C -0.089224 0.389884 2.911271
C 0.933558 0.454813 1.972062
C 3.663992 -1.821134 1.349133
C 4.657648 -2.733258 1.687643
C 5.394869 -3.363625 0.687740
C 5.140367 -3.084294 -0.653235
C 4.150723 -2.170596 -1.000519
H -1.181164 1.888606 -1.068243
H -1.109473 3.323421 0.977246
H -2.921550 3.144891 2.658526
H -4.805203 1.552520 2.321890
H -2.335920 0.263284 -2.467231
H 1.016540 2.355269 -0.328219
H 2.008821 4.609615 -0.464526
H 4.473105 4.877562 -0.576244
H 5.940592 2.878679 -0.571208
H 4.956548 0.617647 -0.464368
H -0.315803 -1.722713 -0.329966
H -2.139747 -1.823780 1.341689
H -1.995760 -0.469496 3.414302
H -0.029539 0.987588 3.815142
H 1.785024 1.105950 2.146697
H 3.084696 -1.340819 2.132017
H 4.851538 -2.955137 2.731966
H 6.168022 -4.077407 0.954512
H 5.711994 -3.579174 -1.431642
H 3.942322 -1.952988 -2.042480
