35
Ph3O3
O -0.008288 -0.000403 2.454494
P -0.004609 -0.000495 0.951973
C -1.957951 -3.806941 -0.758001
C -0.936152 -3.193068 -1.478668
C -0.319015 -2.050082 -0.977642
C -0.728250 -1.511781 0.246065
C -1.750964 -2.135577 0.967916
C -2.363167 -3.279806 0.466619
H -2.435511 -4.700365 -1.148697
H -0.614004 -3.607369 -2.428940
H 0.485417 -1.584462 -1.539899
H -2.056491 -1.728303 1.927170
H -3.154307 -3.761692 1.032603
C 4.272850 0.205213 -0.747802
C 3.232341 0.782344 -1.472013
C 1.932818 0.747326 -0.973720
C 1.668149 0.126745 0.250816
C 2.717747 -0.446219 0.976309
C 4.015852 -0.406380 0.477637
H 5.286211 0.236642 -1.136446
H 3.432484 1.266230 -2.422936
H 1.128740 1.210330 -1.538753
H 2.515640 -0.912186 1.936237
H 4.827245 -0.849995 1.046228
C -2.308515 3.601931 -0.763639
C -2.299629 2.406769 -1.478915
C -1.623953 1.298147 -0.975962
C -0.947305 1.383949 0.244414
C -0.964357 2.585054 0.960939
C -1.643320 3.689995 0.457713
H -2.838774 4.464400 -1.155913
H -2.824190 2.334433 -2.426579
H -1.631993 0.366278 -1.534207
H -0.454179 2.646935 1.917648
H -1.655665 4.618810 1.019510
