14
Benzoic Acid
C 0.123472 1.702083 0.000000
C 0.003809 0.220193 0.000000
C -1.278161 -0.335241 -0.000000
C -1.437979 -1.715471 -0.000000
C -0.317376 -2.544763 -0.000000
C 0.962587 -1.993342 0.000000
C 1.126575 -0.612396 0.000000
O 1.396115 2.129900 0.000000
O -0.817100 2.469364 -0.000000
H -2.138873 0.325159 -0.000000
H -2.434587 -2.145288 -0.000000
H -0.441798 -3.623423 -0.000000
H 1.834287 -2.640004 0.000000
H 2.120935 -0.180170 0.000000
H 1.369365 3.100538 0.000000
