34
cyclic_6
C 4.625517 1.610902 1.128245
C 5.640826 2.557477 1.146229
C 6.224998 2.972693 -0.049329
C 5.800741 2.431362 -1.255302
C 4.783496 1.487275 -1.250647
C 4.167557 1.067733 -0.073998
C 3.059690 0.022416 -0.054082
O 3.110831 -0.589566 -3.843048
O 4.725644 -1.419198 -2.106438
S 3.734163 -0.462401 -2.552072
N 2.548934 -0.211807 -1.416979
O 4.390018 1.013185 -2.506512
C -0.569652 3.773212 0.446589
C -1.475013 4.828169 0.462141
C -2.421234 4.923363 1.480031
C -2.464150 3.960491 2.487703
C -1.564060 2.903158 2.480121
C -0.614136 2.808638 1.457400
C 0.325906 1.692543 1.461953
O 1.243984 1.594209 0.471609
C 1.914927 0.470226 0.793533
N 1.470218 -0.082342 1.870937
N 0.427694 0.718322 2.313700
H 4.170422 1.287561 2.060472
H 5.975550 2.970270 2.091589
H 7.017617 3.713267 -0.044442
H 6.243092 2.724624 -2.200745
H 3.439134 -0.902620 0.398156
H 1.856903 -0.957797 -1.463592
H 0.167707 3.698064 -0.345685
H -1.440787 5.576707 -0.322748
H -3.126552 5.748470 1.488693
H -3.201075 4.033772 3.280910
H -1.589223 2.148470 3.259151
