69
cyclic_5
C -3.692307 1.797585 -1.085102
C -4.689646 2.738871 -0.868290
C -5.788371 2.414463 -0.074017
C -5.889561 1.149706 0.489781
C -4.878935 0.225020 0.263034
C -3.759920 0.526974 -0.509877
C -2.647955 -0.478075 -0.769386
O -4.253264 -3.302452 1.267903
O -4.818029 -2.535031 -1.054633
S -4.259659 -2.276012 0.257473
N -2.755176 -1.597698 0.182521
O -5.041122 -1.011725 0.896831
C -0.994813 3.451102 0.830605
C -1.022113 4.834021 1.003220
C 0.160813 5.565568 0.984323
C 1.377295 4.910570 0.791427
C 1.406844 3.532041 0.621266
O 1.293868 0.708129 1.166001
C 0.219746 2.796252 0.642677
C 0.283136 1.306063 0.392920
O -0.997547 0.709382 0.599641
C -1.299139 0.136819 -0.596190
N -0.395533 0.195450 -1.496304
C 1.290995 -1.825837 -0.347327
N 0.694926 0.863910 -0.922248
C 3.289303 -0.804478 1.307370
C 3.320811 0.270411 -1.279459
P 2.090923 -0.223648 -0.004008
C 1.334099 -2.451139 -1.593460
C 0.664957 -3.655479 -1.791806
C -0.056286 -4.236711 -0.751670
C -0.099445 -3.615215 0.495974
C 0.572514 -2.411622 0.698313
C 3.926821 -2.041169 1.152411
C 4.881901 -2.473800 2.066584
C 5.220784 -1.671292 3.153568
C 4.599195 -0.436979 3.317234
C 3.641507 -0.006327 2.401200
C 2.904839 0.462972 -2.605480
C 3.827886 0.768875 -3.597319
C 5.173608 0.934825 -3.274365
C 5.591729 0.779900 -1.957374
C 4.675051 0.436017 -0.966777
H -2.832109 2.050232 -1.699316
H -4.608619 3.722985 -1.317070
H -6.571892 3.143613 0.102968
H -6.736529 0.864691 1.103886
H -2.701504 -0.829349 -1.807641
H -2.039783 -2.313619 0.046877
H -1.918395 2.883077 0.845864
H -1.973083 5.336481 1.152329
H 0.138402 6.642889 1.117958
H 2.304118 5.475817 0.774089
H 2.355544 3.025852 0.466564
H 1.888337 -2.005758 -2.412983
H 0.706222 -4.138565 -2.762688
H -0.579589 -5.174489 -0.909238
H -0.653426 -4.066547 1.313847
H 0.533672 -1.929976 1.671172
H 3.678883 -2.679004 0.308361
H 5.360738 -3.438685 1.929550
H 5.965242 -2.007387 3.869089
H 4.856868 0.195506 4.161553
H 3.165479 0.957524 2.541836
H 1.854716 0.383662 -2.860328
H 3.492098 0.895979 -4.621635
H 5.891193 1.192007 -4.047518
H 6.635444 0.919894 -1.694419
H 5.025826 0.306434 0.049677
